<?xml version="1.0"?>
<routes>
   <vType id="CAV" vClass="passenger" color="yellow" minGap="2.5" accel="2.6" decel="4.5" maxSpeed="33.33" speedFactor="norm(1,0.05)"/>
    <flow id="1-2-0" begin="0" end="180" vehsPerHour="56" from="OD1" to="OD2">
   </flow>
    <flow id="1-3-0" begin="0" end="180" vehsPerHour="55" from="OD1" to="OD3">
   </flow>
    <flow id="1-4-0" begin="0" end="180" vehsPerHour="73" from="OD1" to="OD4">
   </flow>
    <flow id="1-5-0" begin="0" end="180" vehsPerHour="33" from="OD1" to="OD5">
   </flow>
    <flow id="1-6-0" begin="0" end="180" vehsPerHour="27" from="OD1" to="OD6">
   </flow>
    <flow id="1-7-0" begin="0" end="180" vehsPerHour="71" from="OD1" to="OD7">
   </flow>
    <flow id="1-8-0" begin="0" end="180" vehsPerHour="43" from="OD1" to="OD8">
   </flow>
    <flow id="1-9-0" begin="0" end="180" vehsPerHour="99" from="OD1" to="OD9">
   </flow>
    <flow id="1-10-0" begin="0" end="180" vehsPerHour="46" from="OD1" to="OD10">
   </flow>
    <flow id="1-11-0" begin="0" end="180" vehsPerHour="40" from="OD1" to="OD11">
   </flow>
    <flow id="1-12-0" begin="0" end="180" vehsPerHour="73" from="OD1" to="OD12">
   </flow>
    <flow id="1-13-0" begin="0" end="180" vehsPerHour="69" from="OD1" to="OD13">
   </flow>
    <flow id="1-14-0" begin="0" end="180" vehsPerHour="90" from="OD1" to="OD14">
   </flow>
    <flow id="1-15-0" begin="0" end="180" vehsPerHour="39" from="OD1" to="OD15">
   </flow>
    <flow id="2-1-0" begin="0" end="180" vehsPerHour="97" from="OD2" to="OD1">
   </flow>
    <flow id="2-3-0" begin="0" end="180" vehsPerHour="27" from="OD2" to="OD3">
   </flow>
    <flow id="2-4-0" begin="0" end="180" vehsPerHour="22" from="OD2" to="OD4">
   </flow>
    <flow id="2-5-0" begin="0" end="180" vehsPerHour="35" from="OD2" to="OD5">
   </flow>
    <flow id="2-6-0" begin="0" end="180" vehsPerHour="43" from="OD2" to="OD6">
   </flow>
    <flow id="2-7-0" begin="0" end="180" vehsPerHour="97" from="OD2" to="OD7">
   </flow>
    <flow id="2-8-0" begin="0" end="180" vehsPerHour="55" from="OD2" to="OD8">
   </flow>
    <flow id="2-9-0" begin="0" end="180" vehsPerHour="46" from="OD2" to="OD9">
   </flow>
    <flow id="2-10-0" begin="0" end="180" vehsPerHour="22" from="OD2" to="OD10">
   </flow>
    <flow id="2-11-0" begin="0" end="180" vehsPerHour="47" from="OD2" to="OD11">
   </flow>
    <flow id="2-12-0" begin="0" end="180" vehsPerHour="88" from="OD2" to="OD12">
   </flow>
    <flow id="2-13-0" begin="0" end="180" vehsPerHour="20" from="OD2" to="OD13">
   </flow>
    <flow id="2-14-0" begin="0" end="180" vehsPerHour="72" from="OD2" to="OD14">
   </flow>
    <flow id="2-15-0" begin="0" end="180" vehsPerHour="98" from="OD2" to="OD15">
   </flow>
    <flow id="3-1-0" begin="0" end="180" vehsPerHour="92" from="OD3" to="OD1">
   </flow>
    <flow id="3-2-0" begin="0" end="180" vehsPerHour="73" from="OD3" to="OD2">
   </flow>
    <flow id="3-4-0" begin="0" end="180" vehsPerHour="58" from="OD3" to="OD4">
   </flow>
    <flow id="3-5-0" begin="0" end="180" vehsPerHour="73" from="OD3" to="OD5">
   </flow>
    <flow id="3-6-0" begin="0" end="180" vehsPerHour="44" from="OD3" to="OD6">
   </flow>
    <flow id="3-7-0" begin="0" end="180" vehsPerHour="79" from="OD3" to="OD7">
   </flow>
    <flow id="3-8-0" begin="0" end="180" vehsPerHour="73" from="OD3" to="OD8">
   </flow>
    <flow id="3-9-0" begin="0" end="180" vehsPerHour="75" from="OD3" to="OD9">
   </flow>
    <flow id="3-10-0" begin="0" end="180" vehsPerHour="98" from="OD3" to="OD10">
   </flow>
    <flow id="3-11-0" begin="0" end="180" vehsPerHour="64" from="OD3" to="OD11">
   </flow>
    <flow id="3-12-0" begin="0" end="180" vehsPerHour="20" from="OD3" to="OD12">
   </flow>
    <flow id="3-13-0" begin="0" end="180" vehsPerHour="60" from="OD3" to="OD13">
   </flow>
    <flow id="3-14-0" begin="0" end="180" vehsPerHour="30" from="OD3" to="OD14">
   </flow>
    <flow id="3-15-0" begin="0" end="180" vehsPerHour="26" from="OD3" to="OD15">
   </flow>
    <flow id="4-1-0" begin="0" end="180" vehsPerHour="60" from="OD4" to="OD1">
   </flow>
    <flow id="4-2-0" begin="0" end="180" vehsPerHour="85" from="OD4" to="OD2">
   </flow>
    <flow id="4-3-0" begin="0" end="180" vehsPerHour="63" from="OD4" to="OD3">
   </flow>
    <flow id="4-5-0" begin="0" end="180" vehsPerHour="38" from="OD4" to="OD5">
   </flow>
    <flow id="4-6-0" begin="0" end="180" vehsPerHour="76" from="OD4" to="OD6">
   </flow>
    <flow id="4-7-0" begin="0" end="180" vehsPerHour="38" from="OD4" to="OD7">
   </flow>
    <flow id="4-8-0" begin="0" end="180" vehsPerHour="70" from="OD4" to="OD8">
   </flow>
    <flow id="4-9-0" begin="0" end="180" vehsPerHour="70" from="OD4" to="OD9">
   </flow>
    <flow id="4-10-0" begin="0" end="180" vehsPerHour="59" from="OD4" to="OD10">
   </flow>
    <flow id="4-11-0" begin="0" end="180" vehsPerHour="32" from="OD4" to="OD11">
   </flow>
    <flow id="4-12-0" begin="0" end="180" vehsPerHour="67" from="OD4" to="OD12">
   </flow>
    <flow id="4-13-0" begin="0" end="180" vehsPerHour="54" from="OD4" to="OD13">
   </flow>
    <flow id="4-14-0" begin="0" end="180" vehsPerHour="63" from="OD4" to="OD14">
   </flow>
    <flow id="4-15-0" begin="0" end="180" vehsPerHour="42" from="OD4" to="OD15">
   </flow>
    <flow id="5-1-0" begin="0" end="180" vehsPerHour="88" from="OD5" to="OD1">
   </flow>
    <flow id="5-2-0" begin="0" end="180" vehsPerHour="94" from="OD5" to="OD2">
   </flow>
    <flow id="5-3-0" begin="0" end="180" vehsPerHour="44" from="OD5" to="OD3">
   </flow>
    <flow id="5-4-0" begin="0" end="180" vehsPerHour="61" from="OD5" to="OD4">
   </flow>
    <flow id="5-6-0" begin="0" end="180" vehsPerHour="78" from="OD5" to="OD6">
   </flow>
    <flow id="5-7-0" begin="0" end="180" vehsPerHour="24" from="OD5" to="OD7">
   </flow>
    <flow id="5-8-0" begin="0" end="180" vehsPerHour="27" from="OD5" to="OD8">
   </flow>
    <flow id="5-9-0" begin="0" end="180" vehsPerHour="31" from="OD5" to="OD9">
   </flow>
    <flow id="5-10-0" begin="0" end="180" vehsPerHour="81" from="OD5" to="OD10">
   </flow>
    <flow id="5-11-0" begin="0" end="180" vehsPerHour="98" from="OD5" to="OD11">
   </flow>
    <flow id="5-12-0" begin="0" end="180" vehsPerHour="53" from="OD5" to="OD12">
   </flow>
    <flow id="5-13-0" begin="0" end="180" vehsPerHour="33" from="OD5" to="OD13">
   </flow>
    <flow id="5-14-0" begin="0" end="180" vehsPerHour="78" from="OD5" to="OD14">
   </flow>
    <flow id="5-15-0" begin="0" end="180" vehsPerHour="81" from="OD5" to="OD15">
   </flow>
    <flow id="6-1-0" begin="0" end="180" vehsPerHour="98" from="OD6" to="OD1">
   </flow>
    <flow id="6-2-0" begin="0" end="180" vehsPerHour="90" from="OD6" to="OD2">
   </flow>
    <flow id="6-3-0" begin="0" end="180" vehsPerHour="93" from="OD6" to="OD3">
   </flow>
    <flow id="6-4-0" begin="0" end="180" vehsPerHour="44" from="OD6" to="OD4">
   </flow>
    <flow id="6-5-0" begin="0" end="180" vehsPerHour="60" from="OD6" to="OD5">
   </flow>
    <flow id="6-7-0" begin="0" end="180" vehsPerHour="67" from="OD6" to="OD7">
   </flow>
    <flow id="6-8-0" begin="0" end="180" vehsPerHour="58" from="OD6" to="OD8">
   </flow>
    <flow id="6-9-0" begin="0" end="180" vehsPerHour="58" from="OD6" to="OD9">
   </flow>
    <flow id="6-10-0" begin="0" end="180" vehsPerHour="20" from="OD6" to="OD10">
   </flow>
    <flow id="6-11-0" begin="0" end="180" vehsPerHour="26" from="OD6" to="OD11">
   </flow>
    <flow id="6-12-0" begin="0" end="180" vehsPerHour="38" from="OD6" to="OD12">
   </flow>
    <flow id="6-13-0" begin="0" end="180" vehsPerHour="65" from="OD6" to="OD13">
   </flow>
    <flow id="6-14-0" begin="0" end="180" vehsPerHour="55" from="OD6" to="OD14">
   </flow>
    <flow id="6-15-0" begin="0" end="180" vehsPerHour="97" from="OD6" to="OD15">
   </flow>
    <flow id="7-1-0" begin="0" end="180" vehsPerHour="42" from="OD7" to="OD1">
   </flow>
    <flow id="7-2-0" begin="0" end="180" vehsPerHour="69" from="OD7" to="OD2">
   </flow>
    <flow id="7-3-0" begin="0" end="180" vehsPerHour="77" from="OD7" to="OD3">
   </flow>
    <flow id="7-4-0" begin="0" end="180" vehsPerHour="84" from="OD7" to="OD4">
   </flow>
    <flow id="7-5-0" begin="0" end="180" vehsPerHour="94" from="OD7" to="OD5">
   </flow>
    <flow id="7-6-0" begin="0" end="180" vehsPerHour="54" from="OD7" to="OD6">
   </flow>
    <flow id="7-8-0" begin="0" end="180" vehsPerHour="43" from="OD7" to="OD8">
   </flow>
    <flow id="7-9-0" begin="0" end="180" vehsPerHour="57" from="OD7" to="OD9">
   </flow>
    <flow id="7-10-0" begin="0" end="180" vehsPerHour="93" from="OD7" to="OD10">
   </flow>
    <flow id="7-11-0" begin="0" end="180" vehsPerHour="95" from="OD7" to="OD11">
   </flow>
    <flow id="7-12-0" begin="0" end="180" vehsPerHour="74" from="OD7" to="OD12">
   </flow>
    <flow id="7-13-0" begin="0" end="180" vehsPerHour="67" from="OD7" to="OD13">
   </flow>
    <flow id="7-14-0" begin="0" end="180" vehsPerHour="61" from="OD7" to="OD14">
   </flow>
    <flow id="7-15-0" begin="0" end="180" vehsPerHour="23" from="OD7" to="OD15">
   </flow>
    <flow id="8-1-0" begin="0" end="180" vehsPerHour="79" from="OD8" to="OD1">
   </flow>
    <flow id="8-2-0" begin="0" end="180" vehsPerHour="88" from="OD8" to="OD2">
   </flow>
    <flow id="8-3-0" begin="0" end="180" vehsPerHour="98" from="OD8" to="OD3">
   </flow>
    <flow id="8-4-0" begin="0" end="180" vehsPerHour="71" from="OD8" to="OD4">
   </flow>
    <flow id="8-5-0" begin="0" end="180" vehsPerHour="95" from="OD8" to="OD5">
   </flow>
    <flow id="8-6-0" begin="0" end="180" vehsPerHour="88" from="OD8" to="OD6">
   </flow>
    <flow id="8-7-0" begin="0" end="180" vehsPerHour="50" from="OD8" to="OD7">
   </flow>
    <flow id="8-9-0" begin="0" end="180" vehsPerHour="72" from="OD8" to="OD9">
   </flow>
    <flow id="8-10-0" begin="0" end="180" vehsPerHour="84" from="OD8" to="OD10">
   </flow>
    <flow id="8-11-0" begin="0" end="180" vehsPerHour="64" from="OD8" to="OD11">
   </flow>
    <flow id="8-12-0" begin="0" end="180" vehsPerHour="41" from="OD8" to="OD12">
   </flow>
    <flow id="8-13-0" begin="0" end="180" vehsPerHour="21" from="OD8" to="OD13">
   </flow>
    <flow id="8-14-0" begin="0" end="180" vehsPerHour="72" from="OD8" to="OD14">
   </flow>
    <flow id="8-15-0" begin="0" end="180" vehsPerHour="48" from="OD8" to="OD15">
   </flow>
    <flow id="9-1-0" begin="0" end="180" vehsPerHour="61" from="OD9" to="OD1">
   </flow>
    <flow id="9-2-0" begin="0" end="180" vehsPerHour="45" from="OD9" to="OD2">
   </flow>
    <flow id="9-3-0" begin="0" end="180" vehsPerHour="50" from="OD9" to="OD3">
   </flow>
    <flow id="9-4-0" begin="0" end="180" vehsPerHour="77" from="OD9" to="OD4">
   </flow>
    <flow id="9-5-0" begin="0" end="180" vehsPerHour="21" from="OD9" to="OD5">
   </flow>
    <flow id="9-6-0" begin="0" end="180" vehsPerHour="93" from="OD9" to="OD6">
   </flow>
    <flow id="9-7-0" begin="0" end="180" vehsPerHour="37" from="OD9" to="OD7">
   </flow>
    <flow id="9-8-0" begin="0" end="180" vehsPerHour="83" from="OD9" to="OD8">
   </flow>
    <flow id="9-10-0" begin="0" end="180" vehsPerHour="58" from="OD9" to="OD10">
   </flow>
    <flow id="9-11-0" begin="0" end="180" vehsPerHour="88" from="OD9" to="OD11">
   </flow>
    <flow id="9-12-0" begin="0" end="180" vehsPerHour="22" from="OD9" to="OD12">
   </flow>
    <flow id="9-13-0" begin="0" end="180" vehsPerHour="21" from="OD9" to="OD13">
   </flow>
    <flow id="9-14-0" begin="0" end="180" vehsPerHour="69" from="OD9" to="OD14">
   </flow>
    <flow id="9-15-0" begin="0" end="180" vehsPerHour="97" from="OD9" to="OD15">
   </flow>
    <flow id="10-1-0" begin="0" end="180" vehsPerHour="32" from="OD10" to="OD1">
   </flow>
    <flow id="10-2-0" begin="0" end="180" vehsPerHour="86" from="OD10" to="OD2">
   </flow>
    <flow id="10-3-0" begin="0" end="180" vehsPerHour="34" from="OD10" to="OD3">
   </flow>
    <flow id="10-4-0" begin="0" end="180" vehsPerHour="26" from="OD10" to="OD4">
   </flow>
    <flow id="10-5-0" begin="0" end="180" vehsPerHour="38" from="OD10" to="OD5">
   </flow>
    <flow id="10-6-0" begin="0" end="180" vehsPerHour="45" from="OD10" to="OD6">
   </flow>
    <flow id="10-7-0" begin="0" end="180" vehsPerHour="58" from="OD10" to="OD7">
   </flow>
    <flow id="10-8-0" begin="0" end="180" vehsPerHour="76" from="OD10" to="OD8">
   </flow>
    <flow id="10-9-0" begin="0" end="180" vehsPerHour="92" from="OD10" to="OD9">
   </flow>
    <flow id="10-11-0" begin="0" end="180" vehsPerHour="79" from="OD10" to="OD11">
   </flow>
    <flow id="10-12-0" begin="0" end="180" vehsPerHour="67" from="OD10" to="OD12">
   </flow>
    <flow id="10-13-0" begin="0" end="180" vehsPerHour="74" from="OD10" to="OD13">
   </flow>
    <flow id="10-14-0" begin="0" end="180" vehsPerHour="67" from="OD10" to="OD14">
   </flow>
    <flow id="10-15-0" begin="0" end="180" vehsPerHour="97" from="OD10" to="OD15">
   </flow>
    <flow id="11-1-0" begin="0" end="180" vehsPerHour="38" from="OD11" to="OD1">
   </flow>
    <flow id="11-2-0" begin="0" end="180" vehsPerHour="99" from="OD11" to="OD2">
   </flow>
    <flow id="11-3-0" begin="0" end="180" vehsPerHour="52" from="OD11" to="OD3">
   </flow>
    <flow id="11-4-0" begin="0" end="180" vehsPerHour="99" from="OD11" to="OD4">
   </flow>
    <flow id="11-5-0" begin="0" end="180" vehsPerHour="28" from="OD11" to="OD5">
   </flow>
    <flow id="11-6-0" begin="0" end="180" vehsPerHour="79" from="OD11" to="OD6">
   </flow>
    <flow id="11-7-0" begin="0" end="180" vehsPerHour="67" from="OD11" to="OD7">
   </flow>
    <flow id="11-8-0" begin="0" end="180" vehsPerHour="51" from="OD11" to="OD8">
   </flow>
    <flow id="11-9-0" begin="0" end="180" vehsPerHour="90" from="OD11" to="OD9">
   </flow>
    <flow id="11-10-0" begin="0" end="180" vehsPerHour="87" from="OD11" to="OD10">
   </flow>
    <flow id="11-12-0" begin="0" end="180" vehsPerHour="50" from="OD11" to="OD12">
   </flow>
    <flow id="11-13-0" begin="0" end="180" vehsPerHour="51" from="OD11" to="OD13">
   </flow>
    <flow id="11-14-0" begin="0" end="180" vehsPerHour="78" from="OD11" to="OD14">
   </flow>
    <flow id="11-15-0" begin="0" end="180" vehsPerHour="44" from="OD11" to="OD15">
   </flow>
    <flow id="12-1-0" begin="0" end="180" vehsPerHour="61" from="OD12" to="OD1">
   </flow>
    <flow id="12-2-0" begin="0" end="180" vehsPerHour="85" from="OD12" to="OD2">
   </flow>
    <flow id="12-3-0" begin="0" end="180" vehsPerHour="84" from="OD12" to="OD3">
   </flow>
    <flow id="12-4-0" begin="0" end="180" vehsPerHour="38" from="OD12" to="OD4">
   </flow>
    <flow id="12-5-0" begin="0" end="180" vehsPerHour="41" from="OD12" to="OD5">
   </flow>
    <flow id="12-6-0" begin="0" end="180" vehsPerHour="36" from="OD12" to="OD6">
   </flow>
    <flow id="12-7-0" begin="0" end="180" vehsPerHour="91" from="OD12" to="OD7">
   </flow>
    <flow id="12-8-0" begin="0" end="180" vehsPerHour="91" from="OD12" to="OD8">
   </flow>
    <flow id="12-9-0" begin="0" end="180" vehsPerHour="81" from="OD12" to="OD9">
   </flow>
    <flow id="12-10-0" begin="0" end="180" vehsPerHour="57" from="OD12" to="OD10">
   </flow>
    <flow id="12-11-0" begin="0" end="180" vehsPerHour="27" from="OD12" to="OD11">
   </flow>
    <flow id="12-13-0" begin="0" end="180" vehsPerHour="98" from="OD12" to="OD13">
   </flow>
    <flow id="12-14-0" begin="0" end="180" vehsPerHour="55" from="OD12" to="OD14">
   </flow>
    <flow id="12-15-0" begin="0" end="180" vehsPerHour="90" from="OD12" to="OD15">
   </flow>
    <flow id="13-1-0" begin="0" end="180" vehsPerHour="49" from="OD13" to="OD1">
   </flow>
    <flow id="13-2-0" begin="0" end="180" vehsPerHour="80" from="OD13" to="OD2">
   </flow>
    <flow id="13-3-0" begin="0" end="180" vehsPerHour="28" from="OD13" to="OD3">
   </flow>
    <flow id="13-4-0" begin="0" end="180" vehsPerHour="39" from="OD13" to="OD4">
   </flow>
    <flow id="13-5-0" begin="0" end="180" vehsPerHour="30" from="OD13" to="OD5">
   </flow>
    <flow id="13-6-0" begin="0" end="180" vehsPerHour="31" from="OD13" to="OD6">
   </flow>
    <flow id="13-7-0" begin="0" end="180" vehsPerHour="25" from="OD13" to="OD7">
   </flow>
    <flow id="13-8-0" begin="0" end="180" vehsPerHour="61" from="OD13" to="OD8">
   </flow>
    <flow id="13-9-0" begin="0" end="180" vehsPerHour="22" from="OD13" to="OD9">
   </flow>
    <flow id="13-10-0" begin="0" end="180" vehsPerHour="72" from="OD13" to="OD10">
   </flow>
    <flow id="13-11-0" begin="0" end="180" vehsPerHour="48" from="OD13" to="OD11">
   </flow>
    <flow id="13-12-0" begin="0" end="180" vehsPerHour="37" from="OD13" to="OD12">
   </flow>
    <flow id="13-14-0" begin="0" end="180" vehsPerHour="45" from="OD13" to="OD14">
   </flow>
    <flow id="13-15-0" begin="0" end="180" vehsPerHour="77" from="OD13" to="OD15">
   </flow>
    <flow id="14-1-0" begin="0" end="180" vehsPerHour="39" from="OD14" to="OD1">
   </flow>
    <flow id="14-2-0" begin="0" end="180" vehsPerHour="93" from="OD14" to="OD2">
   </flow>
    <flow id="14-3-0" begin="0" end="180" vehsPerHour="66" from="OD14" to="OD3">
   </flow>
    <flow id="14-4-0" begin="0" end="180" vehsPerHour="86" from="OD14" to="OD4">
   </flow>
    <flow id="14-5-0" begin="0" end="180" vehsPerHour="76" from="OD14" to="OD5">
   </flow>
    <flow id="14-6-0" begin="0" end="180" vehsPerHour="99" from="OD14" to="OD6">
   </flow>
    <flow id="14-7-0" begin="0" end="180" vehsPerHour="34" from="OD14" to="OD7">
   </flow>
    <flow id="14-8-0" begin="0" end="180" vehsPerHour="86" from="OD14" to="OD8">
   </flow>
    <flow id="14-9-0" begin="0" end="180" vehsPerHour="97" from="OD14" to="OD9">
   </flow>
    <flow id="14-10-0" begin="0" end="180" vehsPerHour="63" from="OD14" to="OD10">
   </flow>
    <flow id="14-11-0" begin="0" end="180" vehsPerHour="77" from="OD14" to="OD11">
   </flow>
    <flow id="14-12-0" begin="0" end="180" vehsPerHour="59" from="OD14" to="OD12">
   </flow>
    <flow id="14-13-0" begin="0" end="180" vehsPerHour="35" from="OD14" to="OD13">
   </flow>
    <flow id="14-15-0" begin="0" end="180" vehsPerHour="92" from="OD14" to="OD15">
   </flow>
    <flow id="15-1-0" begin="0" end="180" vehsPerHour="41" from="OD15" to="OD1">
   </flow>
    <flow id="15-2-0" begin="0" end="180" vehsPerHour="76" from="OD15" to="OD2">
   </flow>
    <flow id="15-3-0" begin="0" end="180" vehsPerHour="69" from="OD15" to="OD3">
   </flow>
    <flow id="15-4-0" begin="0" end="180" vehsPerHour="40" from="OD15" to="OD4">
   </flow>
    <flow id="15-5-0" begin="0" end="180" vehsPerHour="22" from="OD15" to="OD5">
   </flow>
    <flow id="15-6-0" begin="0" end="180" vehsPerHour="94" from="OD15" to="OD6">
   </flow>
    <flow id="15-7-0" begin="0" end="180" vehsPerHour="43" from="OD15" to="OD7">
   </flow>
    <flow id="15-8-0" begin="0" end="180" vehsPerHour="54" from="OD15" to="OD8">
   </flow>
    <flow id="15-9-0" begin="0" end="180" vehsPerHour="93" from="OD15" to="OD9">
   </flow>
    <flow id="15-10-0" begin="0" end="180" vehsPerHour="53" from="OD15" to="OD10">
   </flow>
    <flow id="15-11-0" begin="0" end="180" vehsPerHour="27" from="OD15" to="OD11">
   </flow>
    <flow id="15-12-0" begin="0" end="180" vehsPerHour="75" from="OD15" to="OD12">
   </flow>
    <flow id="15-13-0" begin="0" end="180" vehsPerHour="75" from="OD15" to="OD13">
   </flow>
    <flow id="15-14-0" begin="0" end="180" vehsPerHour="23" from="OD15" to="OD14">
   </flow>
    <flow id="1-2-1" begin="180" end="360" vehsPerHour="76" from="OD1" to="OD2">
   </flow>
    <flow id="1-3-1" begin="180" end="360" vehsPerHour="34" from="OD1" to="OD3">
   </flow>
    <flow id="1-4-1" begin="180" end="360" vehsPerHour="84" from="OD1" to="OD4">
   </flow>
    <flow id="1-5-1" begin="180" end="360" vehsPerHour="31" from="OD1" to="OD5">
   </flow>
    <flow id="1-6-1" begin="180" end="360" vehsPerHour="37" from="OD1" to="OD6">
   </flow>
    <flow id="1-7-1" begin="180" end="360" vehsPerHour="22" from="OD1" to="OD7">
   </flow>
    <flow id="1-8-1" begin="180" end="360" vehsPerHour="34" from="OD1" to="OD8">
   </flow>
    <flow id="1-9-1" begin="180" end="360" vehsPerHour="34" from="OD1" to="OD9">
   </flow>
    <flow id="1-10-1" begin="180" end="360" vehsPerHour="64" from="OD1" to="OD10">
   </flow>
    <flow id="1-11-1" begin="180" end="360" vehsPerHour="51" from="OD1" to="OD11">
   </flow>
    <flow id="1-12-1" begin="180" end="360" vehsPerHour="95" from="OD1" to="OD12">
   </flow>
    <flow id="1-13-1" begin="180" end="360" vehsPerHour="64" from="OD1" to="OD13">
   </flow>
    <flow id="1-14-1" begin="180" end="360" vehsPerHour="33" from="OD1" to="OD14">
   </flow>
    <flow id="1-15-1" begin="180" end="360" vehsPerHour="62" from="OD1" to="OD15">
   </flow>
    <flow id="2-1-1" begin="180" end="360" vehsPerHour="28" from="OD2" to="OD1">
   </flow>
    <flow id="2-3-1" begin="180" end="360" vehsPerHour="84" from="OD2" to="OD3">
   </flow>
    <flow id="2-4-1" begin="180" end="360" vehsPerHour="68" from="OD2" to="OD4">
   </flow>
    <flow id="2-5-1" begin="180" end="360" vehsPerHour="54" from="OD2" to="OD5">
   </flow>
    <flow id="2-6-1" begin="180" end="360" vehsPerHour="32" from="OD2" to="OD6">
   </flow>
    <flow id="2-7-1" begin="180" end="360" vehsPerHour="53" from="OD2" to="OD7">
   </flow>
    <flow id="2-8-1" begin="180" end="360" vehsPerHour="29" from="OD2" to="OD8">
   </flow>
    <flow id="2-9-1" begin="180" end="360" vehsPerHour="64" from="OD2" to="OD9">
   </flow>
    <flow id="2-10-1" begin="180" end="360" vehsPerHour="42" from="OD2" to="OD10">
   </flow>
    <flow id="2-11-1" begin="180" end="360" vehsPerHour="95" from="OD2" to="OD11">
   </flow>
    <flow id="2-12-1" begin="180" end="360" vehsPerHour="39" from="OD2" to="OD12">
   </flow>
    <flow id="2-13-1" begin="180" end="360" vehsPerHour="63" from="OD2" to="OD13">
   </flow>
    <flow id="2-14-1" begin="180" end="360" vehsPerHour="88" from="OD2" to="OD14">
   </flow>
    <flow id="2-15-1" begin="180" end="360" vehsPerHour="33" from="OD2" to="OD15">
   </flow>
    <flow id="3-1-1" begin="180" end="360" vehsPerHour="63" from="OD3" to="OD1">
   </flow>
    <flow id="3-2-1" begin="180" end="360" vehsPerHour="47" from="OD3" to="OD2">
   </flow>
    <flow id="3-4-1" begin="180" end="360" vehsPerHour="95" from="OD3" to="OD4">
   </flow>
    <flow id="3-5-1" begin="180" end="360" vehsPerHour="87" from="OD3" to="OD5">
   </flow>
    <flow id="3-6-1" begin="180" end="360" vehsPerHour="58" from="OD3" to="OD6">
   </flow>
    <flow id="3-7-1" begin="180" end="360" vehsPerHour="70" from="OD3" to="OD7">
   </flow>
    <flow id="3-8-1" begin="180" end="360" vehsPerHour="48" from="OD3" to="OD8">
   </flow>
    <flow id="3-9-1" begin="180" end="360" vehsPerHour="30" from="OD3" to="OD9">
   </flow>
    <flow id="3-10-1" begin="180" end="360" vehsPerHour="56" from="OD3" to="OD10">
   </flow>
    <flow id="3-11-1" begin="180" end="360" vehsPerHour="29" from="OD3" to="OD11">
   </flow>
    <flow id="3-12-1" begin="180" end="360" vehsPerHour="44" from="OD3" to="OD12">
   </flow>
    <flow id="3-13-1" begin="180" end="360" vehsPerHour="57" from="OD3" to="OD13">
   </flow>
    <flow id="3-14-1" begin="180" end="360" vehsPerHour="80" from="OD3" to="OD14">
   </flow>
    <flow id="3-15-1" begin="180" end="360" vehsPerHour="96" from="OD3" to="OD15">
   </flow>
    <flow id="4-1-1" begin="180" end="360" vehsPerHour="58" from="OD4" to="OD1">
   </flow>
    <flow id="4-2-1" begin="180" end="360" vehsPerHour="70" from="OD4" to="OD2">
   </flow>
    <flow id="4-3-1" begin="180" end="360" vehsPerHour="58" from="OD4" to="OD3">
   </flow>
    <flow id="4-5-1" begin="180" end="360" vehsPerHour="58" from="OD4" to="OD5">
   </flow>
    <flow id="4-6-1" begin="180" end="360" vehsPerHour="67" from="OD4" to="OD6">
   </flow>
    <flow id="4-7-1" begin="180" end="360" vehsPerHour="78" from="OD4" to="OD7">
   </flow>
    <flow id="4-8-1" begin="180" end="360" vehsPerHour="43" from="OD4" to="OD8">
   </flow>
    <flow id="4-9-1" begin="180" end="360" vehsPerHour="86" from="OD4" to="OD9">
   </flow>
    <flow id="4-10-1" begin="180" end="360" vehsPerHour="44" from="OD4" to="OD10">
   </flow>
    <flow id="4-11-1" begin="180" end="360" vehsPerHour="71" from="OD4" to="OD11">
   </flow>
    <flow id="4-12-1" begin="180" end="360" vehsPerHour="70" from="OD4" to="OD12">
   </flow>
    <flow id="4-13-1" begin="180" end="360" vehsPerHour="43" from="OD4" to="OD13">
   </flow>
    <flow id="4-14-1" begin="180" end="360" vehsPerHour="64" from="OD4" to="OD14">
   </flow>
    <flow id="4-15-1" begin="180" end="360" vehsPerHour="27" from="OD4" to="OD15">
   </flow>
    <flow id="5-1-1" begin="180" end="360" vehsPerHour="90" from="OD5" to="OD1">
   </flow>
    <flow id="5-2-1" begin="180" end="360" vehsPerHour="68" from="OD5" to="OD2">
   </flow>
    <flow id="5-3-1" begin="180" end="360" vehsPerHour="65" from="OD5" to="OD3">
   </flow>
    <flow id="5-4-1" begin="180" end="360" vehsPerHour="47" from="OD5" to="OD4">
   </flow>
    <flow id="5-6-1" begin="180" end="360" vehsPerHour="92" from="OD5" to="OD6">
   </flow>
    <flow id="5-7-1" begin="180" end="360" vehsPerHour="55" from="OD5" to="OD7">
   </flow>
    <flow id="5-8-1" begin="180" end="360" vehsPerHour="69" from="OD5" to="OD8">
   </flow>
    <flow id="5-9-1" begin="180" end="360" vehsPerHour="38" from="OD5" to="OD9">
   </flow>
    <flow id="5-10-1" begin="180" end="360" vehsPerHour="81" from="OD5" to="OD10">
   </flow>
    <flow id="5-11-1" begin="180" end="360" vehsPerHour="90" from="OD5" to="OD11">
   </flow>
    <flow id="5-12-1" begin="180" end="360" vehsPerHour="50" from="OD5" to="OD12">
   </flow>
    <flow id="5-13-1" begin="180" end="360" vehsPerHour="67" from="OD5" to="OD13">
   </flow>
    <flow id="5-14-1" begin="180" end="360" vehsPerHour="23" from="OD5" to="OD14">
   </flow>
    <flow id="5-15-1" begin="180" end="360" vehsPerHour="80" from="OD5" to="OD15">
   </flow>
    <flow id="6-1-1" begin="180" end="360" vehsPerHour="87" from="OD6" to="OD1">
   </flow>
    <flow id="6-2-1" begin="180" end="360" vehsPerHour="72" from="OD6" to="OD2">
   </flow>
    <flow id="6-3-1" begin="180" end="360" vehsPerHour="76" from="OD6" to="OD3">
   </flow>
    <flow id="6-4-1" begin="180" end="360" vehsPerHour="90" from="OD6" to="OD4">
   </flow>
    <flow id="6-5-1" begin="180" end="360" vehsPerHour="60" from="OD6" to="OD5">
   </flow>
    <flow id="6-7-1" begin="180" end="360" vehsPerHour="74" from="OD6" to="OD7">
   </flow>
    <flow id="6-8-1" begin="180" end="360" vehsPerHour="97" from="OD6" to="OD8">
   </flow>
    <flow id="6-9-1" begin="180" end="360" vehsPerHour="58" from="OD6" to="OD9">
   </flow>
    <flow id="6-10-1" begin="180" end="360" vehsPerHour="73" from="OD6" to="OD10">
   </flow>
    <flow id="6-11-1" begin="180" end="360" vehsPerHour="46" from="OD6" to="OD11">
   </flow>
    <flow id="6-12-1" begin="180" end="360" vehsPerHour="92" from="OD6" to="OD12">
   </flow>
    <flow id="6-13-1" begin="180" end="360" vehsPerHour="81" from="OD6" to="OD13">
   </flow>
    <flow id="6-14-1" begin="180" end="360" vehsPerHour="57" from="OD6" to="OD14">
   </flow>
    <flow id="6-15-1" begin="180" end="360" vehsPerHour="85" from="OD6" to="OD15">
   </flow>
    <flow id="7-1-1" begin="180" end="360" vehsPerHour="65" from="OD7" to="OD1">
   </flow>
    <flow id="7-2-1" begin="180" end="360" vehsPerHour="85" from="OD7" to="OD2">
   </flow>
    <flow id="7-3-1" begin="180" end="360" vehsPerHour="98" from="OD7" to="OD3">
   </flow>
    <flow id="7-4-1" begin="180" end="360" vehsPerHour="48" from="OD7" to="OD4">
   </flow>
    <flow id="7-5-1" begin="180" end="360" vehsPerHour="25" from="OD7" to="OD5">
   </flow>
    <flow id="7-6-1" begin="180" end="360" vehsPerHour="31" from="OD7" to="OD6">
   </flow>
    <flow id="7-8-1" begin="180" end="360" vehsPerHour="23" from="OD7" to="OD8">
   </flow>
    <flow id="7-9-1" begin="180" end="360" vehsPerHour="32" from="OD7" to="OD9">
   </flow>
    <flow id="7-10-1" begin="180" end="360" vehsPerHour="76" from="OD7" to="OD10">
   </flow>
    <flow id="7-11-1" begin="180" end="360" vehsPerHour="77" from="OD7" to="OD11">
   </flow>
    <flow id="7-12-1" begin="180" end="360" vehsPerHour="98" from="OD7" to="OD12">
   </flow>
    <flow id="7-13-1" begin="180" end="360" vehsPerHour="38" from="OD7" to="OD13">
   </flow>
    <flow id="7-14-1" begin="180" end="360" vehsPerHour="39" from="OD7" to="OD14">
   </flow>
    <flow id="7-15-1" begin="180" end="360" vehsPerHour="27" from="OD7" to="OD15">
   </flow>
    <flow id="8-1-1" begin="180" end="360" vehsPerHour="43" from="OD8" to="OD1">
   </flow>
    <flow id="8-2-1" begin="180" end="360" vehsPerHour="96" from="OD8" to="OD2">
   </flow>
    <flow id="8-3-1" begin="180" end="360" vehsPerHour="93" from="OD8" to="OD3">
   </flow>
    <flow id="8-4-1" begin="180" end="360" vehsPerHour="30" from="OD8" to="OD4">
   </flow>
    <flow id="8-5-1" begin="180" end="360" vehsPerHour="31" from="OD8" to="OD5">
   </flow>
    <flow id="8-6-1" begin="180" end="360" vehsPerHour="51" from="OD8" to="OD6">
   </flow>
    <flow id="8-7-1" begin="180" end="360" vehsPerHour="99" from="OD8" to="OD7">
   </flow>
    <flow id="8-9-1" begin="180" end="360" vehsPerHour="46" from="OD8" to="OD9">
   </flow>
    <flow id="8-10-1" begin="180" end="360" vehsPerHour="21" from="OD8" to="OD10">
   </flow>
    <flow id="8-11-1" begin="180" end="360" vehsPerHour="66" from="OD8" to="OD11">
   </flow>
    <flow id="8-12-1" begin="180" end="360" vehsPerHour="72" from="OD8" to="OD12">
   </flow>
    <flow id="8-13-1" begin="180" end="360" vehsPerHour="51" from="OD8" to="OD13">
   </flow>
    <flow id="8-14-1" begin="180" end="360" vehsPerHour="73" from="OD8" to="OD14">
   </flow>
    <flow id="8-15-1" begin="180" end="360" vehsPerHour="91" from="OD8" to="OD15">
   </flow>
    <flow id="9-1-1" begin="180" end="360" vehsPerHour="34" from="OD9" to="OD1">
   </flow>
    <flow id="9-2-1" begin="180" end="360" vehsPerHour="96" from="OD9" to="OD2">
   </flow>