<?xml version='1.0' encoding='utf-8'?>
<additional xmlns:xsi="http://www.w3.org/2001/XMLSchema-instance" xsi:noNamespaceSchemaLocation="http://sumo.dlr.de/xsd/additional_file.xsd">
    
    <inductionLoop id="AID01111_0" lane="1095134837_0" pos="9.00" period="180.00" file="simulation1\AID01111.xml" />
    <inductionLoop id="AID01111_1" lane="1095134837_1" pos="9.00" period="180.00" file="simulation1\AID01111.xml" />
    <inductionLoop id="AID01111_2" lane="1095134837_2" pos="9.00" period="180.00" file="simulation1\AID01111.xml" />
    <inductionLoop id="AID01111_3" lane="1095134837_3" pos="9.00" period="180.00" file="simulation1\AID01111.xml" />
    <inductionLoop id="AID01112_0" lane="1095134832_0" pos="58.00" period="180.00" file="simulation1\AID01112.xml" />
    <inductionLoop id="AID01112_1" lane="1095134832_1" pos="58.00" period="180.00" file="simulation1\AID01112.xml" />
    <inductionLoop id="AID01112_2" lane="1095134832_2" pos="58.00" period="180.00" file="simulation1\AID01112.xml" />
    <inductionLoop id="AID01112_3" lane="1095134832_3" pos="58.00" period="180.00" file="simulation1\AID01112.xml" />
    <inductionLoop id="AID01114_0" lane="249537377-AddedOnRampEdge_3" pos="70.00" period="180.00" file="simulation1\AID01114.xml" />
    <inductionLoop id="AID01114_1" lane="249537377-AddedOnRampEdge_2" pos="70.00" period="180.00" file="simulation1\AID01114.xml" />
    <inductionLoop id="AID01114_2" lane="249537377-AddedOnRampEdge_1" pos="70.00" period="180.00" file="simulation1\AID01114.xml" />
    <inductionLoop id="AID01114_3" lane="249537377-AddedOnRampEdge_0" pos="70.00" period="180.00" file="simulation1\AID01114.xml" />
    <inductionLoop id="AID01115_0" lane="888280062_0" pos="33.00" period="180.00" file="simulation1\AID01115.xml" />
    <inductionLoop id="AID01115_1" lane="888280062_1" pos="33.00" period="180.00" file="simulation1\AID01115.xml" />
    <inductionLoop id="AID01115_2" lane="888280062_2" pos="33.00" period="180.00" file="simulation1\AID01115.xml" />
    <inductionLoop id="AID01116_0" lane="686673306_0" pos="66.00" period="180.00" file="simulation1\AID01116.xml" />
    <inductionLoop id="AID01116_1" lane="686673306_1" pos="66.00" period="180.00" file="simulation1\AID01116.xml" />
    <inductionLoop id="AID01116_2" lane="66348983_0" pos="175.00" period="180.00" file="simulation1\AID01116.xml" />
    <inductionLoop id="AID01116_3" lane="66348983_1" pos="177.00" period="180.00" file="simulation1\AID01116.xml" />
    <inductionLoop id="AID01117_0" lane="813897780_0" pos="128.00" period="180.00" file="simulation1\AID01117.xml" />
    <inductionLoop id="AID01117_1" lane="813897780_1" pos="128.00" period="180.00" file="simulation1\AID01117.xml" />
    <inductionLoop id="AID01117_2" lane="813897780_2" pos="128.00" period="180.00" file="simulation1\AID01117.xml" />
    <inductionLoop id="AID01117_3" lane="813897780_3" pos="128.00" period="180.00" file="simulation1\AID01117.xml" />
    <inductionLoop id="AID01118_0" lane="493968081_0" pos="14.00" period="180.00" file="simulation1\AID01118.xml" />
    <inductionLoop id="AID01118_1" lane="493968081_1" pos="14.00" period="180.00" file="simulation1\AID01118.xml" />
    <inductionLoop id="AID01118_2" lane="493968081_2" pos="14.00" period="180.00" file="simulation1\AID01118.xml" />
    <inductionLoop id="AID01119_0" lane="1213727679_0" pos="21.00" period="180.00" file="simulation1\AID01119.xml" />
    <inductionLoop id="AID01119_1" lane="1213727679_1" pos="21.00" period="180.00" file="simulation1\AID01119.xml" />
    <inductionLoop id="AID01119_2" lane="1213727679_2" pos="21.00" period="180.00" file="simulation1\AID01119.xml" />
    <inductionLoop id="AID01119_3" lane="1213727679_3" pos="21.00" period="180.00" file="simulation1\AID01119.xml" />
    <inductionLoop id="AID01120_0" lane="1071959714_0" pos="86.00" period="180.00" file="simulation1\AID01120.xml" />
    <inductionLoop id="AID01120_1" lane="1071959714_1" pos="86.00" period="180.00" file="simulation1\AID01120.xml" />
    <inductionLoop id="AID01120_2" lane="1071959714_2" pos="86.00" period="180.00" file="simulation1\AID01120.xml" />
    <inductionLoop id="AID01121_0" lane="453783863_0" pos="138.00" period="180.00" file="simulation1\AID01121.xml" />
    <inductionLoop id="AID01121_1" lane="453783863_1" pos="138.00" period="180.00" file="simulation1\AID01121.xml" />
    <inductionLoop id="AID01121_2" lane="758456862_0" pos="168.00" period="180.00" file="simulation1\AID01121.xml" />
    <inductionLoop id="AID01121_3" lane="758456862_1" pos="168.00" period="180.00" file="simulation1\AID01121.xml" />
    <inductionLoop id="AID01122_0" lane="937367671_0" pos="79.00" period="180.00" file="simulation1\AID01122.xml" />
    <inductionLoop id="AID01122_1" lane="937367671_1" pos="79.00" period="180.00" file="simulation1\AID01122.xml" />
    <inductionLoop id="AID01122_2" lane="937402697_0" pos="13.00" period="180.00" file="simulation1\AID01122.xml" />
    <inductionLoop id="AID01122_3" lane="937402697_1" pos="13.00" period="180.00" file="simulation1\AID01122.xml" />
    <inductionLoop id="AID01202_0" lane="693916337_0" pos="38.00" period="180.00" file="simulation1\AID01202.xml" />
    <inductionLoop id="AID01202_1" lane="693916337_1" pos="38.00" period="180.00" file="simulation1\AID01202.xml" />
    <inductionLoop id="AID01202_2" lane="693916337_2" pos="38.00" period="180.00" file="simulation1\AID01202.xml" />
    <inductionLoop id="AID01203_0" lane="453783862_0" pos="12.00" period="180.00" file="simulation1\AID01203.xml" />
    <inductionLoop id="AID01203_1" lane="453783862_1" pos="12.00" period="180.00" file="simulation1\AID01203.xml" />
    <inductionLoop id="AID01203_2" lane="813424918_0" pos="438.00" period="180.00" file="simulation1\AID01203.xml" />
    <inductionLoop id="AID01203_3" lane="813424918_1" pos="438.00" period="180.00" file="simulation1\AID01203.xml" />
    <inductionLoop id="AID01204_0" lane="86059942#0_0" pos="163.00" period="180.00" file="simulation1\AID01204.xml" />
    <inductionLoop id="AID01204_1" lane="86059942#0_1" pos="163.00" period="180.00" file="simulation1\AID01204.xml" />
    <inductionLoop id="AID01204_2" lane="86059942#0_2" pos="163.00" period="180.00" file="simulation1\AID01204.xml" />
    <inductionLoop id="AID01204_3" lane="86059942#0_3" pos="163.00" period="180.00" file="simulation1\AID01204.xml" />
    <inductionLoop id="AID01205_0" lane="86059942#5_0" pos="12.00" period="180.00" file="simulation1\AID01205.xml" />
    <inductionLoop id="AID01205_1" lane="86059942#5_1" pos="12.00" period="180.00" file="simulation1\AID01205.xml" />
    <inductionLoop id="AID01205_2" lane="86059942#5_2" pos="12.00" period="180.00" file="simulation1\AID01205.xml" />
    <inductionLoop id="AID01205_3" lane="86059942#5_3" pos="12.00" period="180.00" file="simulation1\AID01205.xml" />
    <inductionLoop id="AID01206_0" lane="767532074_0" pos="40.00" period="180.00" file="simulation1\AID01206.xml" />
    <inductionLoop id="AID01206_1" lane="767532074_1" pos="40.00" period="180.00" file="simulation1\AID01206.xml" />
    <inductionLoop id="AID01206_2" lane="767532074_2" pos="40.00" period="180.00" file="simulation1\AID01206.xml" />
    <inductionLoop id="AID01207_0" lane="494247573_0" pos="108.00" period="180.00" file="simulation1\AID01207.xml" />
    <inductionLoop id="AID01207_1" lane="494247573_1" pos="108.00" period="180.00" file="simulation1\AID01207.xml" />
    <inductionLoop id="AID01207_2" lane="494247573_2" pos="108.00" period="180.00" file="simulation1\AID01207.xml" />
    <inductionLoop id="AID01207_3" lane="494247573_3" pos="108.00" period="180.00" file="simulation1\AID01207.xml" />
    <inductionLoop id="AID01208_0" lane="98532489#0_0" pos="31.76" period="180.00" file="simulation1\AID01208.xml" />
    <inductionLoop id="AID01208_1" lane="98532489#0_1" pos="32.49" period="180.00" file="simulation1\AID01208.xml" />
    <inductionLoop id="AID01208_2" lane="66348976_0" pos="164.02" period="180.00" file="simulation1\AID01208.xml" />
    <inductionLoop id="AID01208_3" lane="66348976_1" pos="165.99" period="180.00" file="simulation1\AID01208.xml" />
    <inductionLoop id="AID01209_0" lane="250542513_0" pos="37.00" period="180.00" file="simulation1\AID01209.xml" />
    <inductionLoop id="AID01209_1" lane="250542513_1" pos="37.00" period="180.00" file="simulation1\AID01209.xml" />
    <inductionLoop id="AID01209_2" lane="250542513_2" pos="37.00" period="180.00" file="simulation1\AID01209.xml" />
    <inductionLoop id="AID01211_0" lane="888280076_0" pos="517.00" period="180.00" file="simulation1\AID01211.xml" />
    <inductionLoop id="AID01211_1" lane="888280076_1" pos="517.00" period="180.00" file="simulation1\AID01211.xml" />
    <inductionLoop id="AID01211_2" lane="888280076_2" pos="517.00" period="180.00" file="simulation1\AID01211.xml" />
    <inductionLoop id="AID01212_0" lane="1095134817_0" pos="17.00" period="180.00" file="simulation1\AID01212.xml" />
    <inductionLoop id="AID01212_1" lane="1095134817_1" pos="17.00" period="180.00" file="simulation1\AID01212.xml" />
    <inductionLoop id="AID01212_2" lane="1095134817_2" pos="17.00" period="180.00" file="simulation1\AID01212.xml" />
    <inductionLoop id="AID01213_0" lane="249233908_0" pos="50.00" period="180.00" file="simulation1\AID01213.xml" />
    <inductionLoop id="AID01213_1" lane="249233908_1" pos="50.00" period="180.00" file="simulation1\AID01213.xml" />
    <inductionLoop id="AID01213_2" lane="249233908_2" pos="50.00" period="180.00" file="simulation1\AID01213.xml" />
    <inductionLoop id="AID01213_3" lane="249233908_3" pos="50.00" period="180.00" file="simulation1\AID01213.xml" />
    <inductionLoop id="AID02114_0" lane="24210270_0" pos="388.89" period="180.00" file="simulation1\AID02114.xml" />
    <inductionLoop id="AID02114_1" lane="24210270_1" pos="388.07" period="180.00" file="simulation1\AID02114.xml" />
    <inductionLoop id="AID02115_0" lane="24210270_0" pos="932.00" period="180.00" file="simulation1\AID02115.xml" />
    <inductionLoop id="AID02115_1" lane="24210270_1" pos="931.00" period="180.00" file="simulation1\AID02115.xml" />
    <inductionLoop id="AID02116_0" lane="1133426139_0" pos="27.00" period="180.00" file="simulation1\AID02116.xml" />
    <inductionLoop id="AID02116_1" lane="1133426139_1" pos="27.00" period="180.00" file="simulation1\AID02116.xml" />
    <inductionLoop id="AID02116_2" lane="590544889_0" pos="60.00" period="180.00" file="simulation1\AID02116.xml" />
    <inductionLoop id="AID02116_3" lane="590544889_1" pos="59.00" period="180.00" file="simulation1\AID02116.xml" />
    <inductionLoop id="AID02117_0" lane="1133765806_0" pos="133.00" period="180.00" file="simulation1\AID02117.xml" />
    <inductionLoop id="AID02117_1" lane="1133765806_1" pos="133.00" period="180.00" file="simulation1\AID02117.xml" />
    <inductionLoop id="AID02201_0" lane="1133765789_0" pos="28.00" period="180.00" file="simulation1\AID02201.xml" />
    <inductionLoop id="AID02201_1" lane="1133765789_1" pos="28.00" period="180.00" file="simulation1\AID02201.xml" />
    <inductionLoop id="AID02202_0" lane="1133765815_0" pos="78.00" period="180.00" file="simulation1\AID02202.xml" />
    <inductionLoop id="AID02202_1" lane="1133765815_1" pos="78.00" period="180.00" file="simulation1\AID02202.xml" />
    <inductionLoop id="AID02203_0" lane="1133765825_0" pos="71.00" period="180.00" file="simulation1\AID02203.xml" />
    <inductionLoop id="AID02203_1" lane="1133765825_1" pos="71.00" period="180.00" file="simulation1\AID02203.xml" />
    <inductionLoop id="AID02204_0" lane="39596696_0" pos="220.87" period="180.00" file="simulation1\AID02204.xml" />
    <inductionLoop id="AID02204_1" lane="39596696_1" pos="218.50" period="180.00" file="simulation1\AID02204.xml" />
    <inductionLoop id="AID02205_0" lane="39596696_0" pos="602.90" period="180.00" file="simulation1\AID02205.xml" />
    <inductionLoop id="AID02205_1" lane="39596696_1" pos="602.01" period="180.00" file="simulation1\AID02205.xml" />
    <inductionLoop id="AID03106_0" lane="1196816236_0" pos="243.88" period="180.00" file="simulation1\AID03106.xml" />
    <inductionLoop id="AID03106_1" lane="1196816236_1" pos="244.37" period="180.00" file="simulation1\AID03106.xml" />
    <inductionLoop id="AID03106_2" lane="1196816236_2" pos="244.80" period="180.00" file="simulation1\AID03106.xml" />
    <inductionLoop id="AID03106_3" lane="1196816236_3" pos="245.03" period="180.00" file="simulation1\AID03106.xml" />
    <inductionLoop id="AID03106_4" lane="1196816236_4" pos="245.03" period="180.00" file="simulation1\AID03106.xml" />
    <inductionLoop id="AID03107_0" lane="1196816216-AddedOnRampEdge_0" pos="15.41" period="180.00" file="simulation1\AID03107.xml" />
    <inductionLoop id="AID03107_1" lane="1196816216-AddedOnRampEdge_1" pos="15.95" period="180.00" file="simulation1\AID03107.xml" />
    <inductionLoop id="AID03107_2" lane="1196816216-AddedOnRampEdge_2" pos="15.28" period="180.00" file="simulation1\AID03107.xml" />
    <inductionLoop id="AID03107_3" lane="1196816216-AddedOnRampEdge_3" pos="15.17" period="180.00" file="simulation1\AID03107.xml" />
    <inductionLoop id="AID03107_4" lane="1196816216-AddedOnRampEdge_4" pos="14.79" period="180.00" file="simulation1\AID03107.xml" />
    <inductionLoop id="AID03108_0" lane="1196816221_0" pos="41.84" period="180.00" file="simulation1\AID03108.xml" />
    <inductionLoop id="AID03108_1" lane="1196816221_1" pos="41.38" period="180.00" file="simulation1\AID03108.xml" />
    <inductionLoop id="AID03108_2" lane="1196816221_2" pos="41.89" period="180.00" file="simulation1\AID03108.xml" />
    <inductionLoop id="AID03109_0" lane="1196816221_0" pos="201.09" period="180.00" file="simulation1\AID03109.xml" />
    <inductionLoop id="AID03109_1" lane="1196816221_1" pos="201.37" period="180.00" file="simulation1\AID03109.xml" />
    <inductionLoop id="AID03109_2" lane="1196816221_2" pos="201.50" period="180.00" file="simulation1\AID03109.xml" />
    <inductionLoop id="AID03110_0" lane="1196816221_0" pos="835.00" period="180.00" file="simulation1\AID03110.xml" />
    <inductionLoop id="AID03110_1" lane="1196816221_1" pos="835.00" period="180.00" file="simulation1\AID03110.xml" />
    <inductionLoop id="AID03110_2" lane="1196816221_2" pos="835.00" period="180.00" file="simulation1\AID03110.xml" />
    <inductionLoop id="AID03111_0" lane="1196816221_0" pos="1324.11" period="180.00" file="simulation1\AID03111.xml" />
    <inductionLoop id="AID03111_1" lane="1196816221_1" pos="1323.57" period="180.00" file="simulation1\AID03111.xml" />
    <inductionLoop id="AID03111_2" lane="1196816221_2" pos="1323.51" period="180.00" file="simulation1\AID03111.xml" />
    <inductionLoop id="AID03112_0" lane="1196816221_0" pos="1708.00" period="180.00" file="simulation1\AID03112.xml" />
    <inductionLoop id="AID03112_1" lane="1196816221_1" pos="1708.00" period="180.00" file="simulation1\AID03112.xml" />
    <inductionLoop id="AID03112_2" lane="1196816221_2" pos="1708.00" period="180.00" file="simulation1\AID03112.xml" />
    <inductionLoop id="AID03113_0" lane="947234771_0" pos="45.00" period="180.00" file="simulation1\AID03113.xml" />
    <inductionLoop id="AID03113_1" lane="947234771_1" pos="45.00" period="180.00" file="simulation1\AID03113.xml" />
    <inductionLoop id="AID03113_2" lane="947234771_2" pos="45.00" period="180.00" file="simulation1\AID03113.xml" />
    <inductionLoop id="AID03113_3" lane="947234771_3" pos="45.00" period="180.00" file="simulation1\AID03113.xml" />
    <inductionLoop id="AID03204_0" lane="278009235_0" pos="382.00" period="180.00" file="simulation1\AID03204.xml" />
    <inductionLoop id="AID03204_1" lane="278009235_1" pos="382.00" period="180.00" file="simulation1\AID03204.xml" />
    <inductionLoop id="AID03204_2" lane="278009235_2" pos="382.00" period="180.00" file="simulation1\AID03204.xml" />
    <inductionLoop id="AID03205_0" lane="1616161616_0" pos="188.00" period="180.00" file="simulation1\AID03205.xml" />
    <inductionLoop id="AID03205_1" lane="1616161616_1" pos="188.00" period="180.00" file="simulation1\AID03205.xml" />
    <inductionLoop id="AID03205_2" lane="1616161616_2" pos="188.00" period="180.00" file="simulation1\AID03205.xml" />
    <inductionLoop id="AID03206_0" lane="1616161616_0" pos="700.44" period="180.00" file="simulation1\AID03206.xml" />
    <inductionLoop id="AID03206_1" lane="1616161616_1" pos="700.54" period="180.00" file="simulation1\AID03206.xml" />
    <inductionLoop id="AID03206_2" lane="1616161616_2" pos="700.05" period="180.00" file="simulation1\AID03206.xml" />
    <inductionLoop id="AID03207_0" lane="1616161616_0" pos="1001.00" period="180.00" file="simulation1\AID03207.xml" />
    <inductionLoop id="AID03207_1" lane="1616161616_1" pos="1001.00" period="180.00" file="simulation1\AID03207.xml" />
    <inductionLoop id="AID03207_2" lane="1616161616_2" pos="1001.00" period="180.00" file="simulation1\AID03207.xml" />
    <inductionLoop id="AID03208_0" lane="1616161616_0" pos="1274.67" period="180.00" file="simulation1\AID03208.xml" />
    <inductionLoop id="AID03208_1" lane="1616161616_1" pos="1273.77" period="180.00" file="simulation1\AID03208.xml" />
    <inductionLoop id="AID03208_2" lane="1616161616_2" pos="1273.95" period="180.00" file="simulation1\AID03208.xml" />
    <inductionLoop id="AID03209_0" lane="1616161616_0" pos="1498.16" period="180.00" file="simulation1\AID03209.xml" />
    <inductionLoop id="AID03209_1" lane="1616161616_1" pos="1497.68" period="180.00" file="simulation1\AID03209.xml" />
    <inductionLoop id="AID03209_2" lane="1616161616_2" pos="1497.75" period="180.00" file="simulation1\AID03209.xml" />
    <inductionLoop id="AID03210_0" lane="1196816195_0" pos="87.00" period="180.00" file="simulation1\AID03210.xml" />
    <inductionLoop id="AID03210_1" lane="1196816195_1" pos="87.91" period="180.00" file="simulation1\AID03210.xml" />
    <inductionLoop id="AID03210_2" lane="1196816195_2" pos="87.11" period="180.00" file="simulation1\AID03210.xml" />
    <inductionLoop id="AID03210_3" lane="1196816195_3" pos="87.51" period="180.00" file="simulation1\AID03210.xml" />
    <inductionLoop id="AID03210_4" lane="1196816195_4" pos="87.52" period="180.00" file="simulation1\AID03210.xml" />
    <inductionLoop id="AID03211_0" lane="1196816208_0" pos="108.00" period="180.00" file="simulation1\AID03211.xml" />
    <inductionLoop id="AID03211_1" lane="1196816208_1" pos="108.00" period="180.00" file="simulation1\AID03211.xml" />
    <inductionLoop id="AID03211_2" lane="1196816208_2" pos="108.00" period="180.00" file="simulation1\AID03211.xml" />
    <inductionLoop id="AID03211_3" lane="1196816208_3" pos="108.00" period="180.00" file="simulation1\AID03211.xml" />
    <inductionLoop id="AID03211_4" lane="1196816208_4" pos="108.00" period="180.00" file="simulation1\AID03211.xml" />
    <inductionLoop id="AID03211_5" lane="1196816208_5" pos="108.00" period="180.00" file="simulation1\AID03211.xml" />
    <inductionLoop id="AID05109_0" lane="37663984_0" pos="70.00" period="180.00" file="simulation1\AID05109.xml" />
    <inductionLoop id="AID05109_1" lane="37663984_1" pos="70.00" period="180.00" file="simulation1\AID05109.xml" />
    <inductionLoop id="AID05109_2" lane="37663984_2" pos="70.00" period="180.00" file="simulation1\AID05109.xml" />
    <inductionLoop id="AID05109_3" lane="37663984_3" pos="70.00" period="180.00" file="simulation1\AID05109.xml" />
    <inductionLoop id="AID05110_0" lane="395010751#0_0" pos="11.00" period="180.00" file="simulation1\AID05110.xml" />
    <inductionLoop id="AID05110_1" lane="395010751#0_1" pos="11.00" period="180.00" file="simulation1\AID05110.xml" />
    <inductionLoop id="AID05111_0" lane="102674730#0_0" pos="17.00" period="180.00" file="simulation1\AID05111.xml" />
    <inductionLoop id="AID05111_1" lane="102674730#0_1" pos="17.00" period="180.00" file="simulation1\AID05111.xml" />
    <inductionLoop id="AID05111_2" lane="102674730#0_2" pos="17.00" period="180.00" file="simulation1\AID05111.xml" />
    <inductionLoop id="AID05113_0" lane="30150778_0" pos="80.00" period="180.00" file="simulation1\AID05113.xml" />
    <inductionLoop id="AID05113_1" lane="30150778_1" pos="80.00" period="180.00" file="simulation1\AID05113.xml" />
    <inductionLoop id="AID05114_0" lane="1299955122_0" pos="18.00" period="180.00" file="simulation1\AID05114.xml" />
    <inductionLoop id="AID05114_1" lane="1299955122_1" pos="18.00" period="180.00" file="simulation1\AID05114.xml" />
    <inductionLoop id="AID05114_2" lane="1299955122_2" pos="18.00" period="180.00" file="simulation1\AID05114.xml" />
    <inductionLoop id="AID05114_3" lane="1299955122_3" pos="18.00" period="180.00" file="simulation1\AID05114.xml" />
    <inductionLoop id="AID05115_0" lane="30150308_0" pos="60.00" period="180.00" file="simulation1\AID05115.xml" />
    <inductionLoop id="AID05115_1" lane="30150308_1" pos="60.00" period="180.00" file="simulation1\AID05115.xml" />
    <inductionLoop id="AID05116_0" lane="30150308_0" pos="366.00" period="180.00" file="simulation1\AID05116.xml" />
    <inductionLoop id="AID05116_1" lane="30150308_1" pos="370.00" period="180.00" file="simulation1\AID05116.xml" />
    <inductionLoop id="AID05117_0" lane="282868472_0" pos="150.00" period="180.00" file="simulation1\AID05117.xml" />
    <inductionLoop id="AID05117_1" lane="282868472_1" pos="149.00" period="180.00" file="simulation1\AID05117.xml" />
    <inductionLoop id="AID05117_2" lane="282868472_2" pos="148.00" period="180.00" file="simulation1\AID05117.xml" />
    <inductionLoop id="AID05118_0" lane="1037106209_1" pos="250.00" period="180.00" file="simulation1\AID05118.xml" />
    <inductionLoop id="AID05118_1" lane="1037106209_0" pos="250.00" period="180.00" file="simulation1\AID05118.xml" />
    <inductionLoop id="AID05119_0" lane="1037106209_1" pos="550.00" period="180.00" file="simulation1\AID05119.xml" />
    <inductionLoop id="AID05119_1" lane="1037106209_0" pos="549.00" period="180.00" file="simulation1\AID05119.xml" />
    <inductionLoop id="AID05120_0" lane="1037106209_1" pos="1065.00" period="180.00" file="simulation1\AID05120.xml" />
    <inductionLoop id="AID05120_1" lane="1037106209_0" pos="1064.00" period="180.00" file="simulation1\AID05120.xml" />
    <inductionLoop id="AID05120_2" lane="26405783#0_1" pos="87.00" period="180.00" file="simulation1\AID05120.xml" />
    <inductionLoop id="AID05120_3" lane="26405783#0_0" pos="87.00" period="180.00" file="simulation1\AID05120.xml" />
    <inductionLoop id="AID05121_0" lane="1087483650_1" pos="10.00" period="180.00" file="simulation1\AID05121.xml" />
    <inductionLoop id="AID05121_1" lane="1087483650_0" pos="10.00" period="180.00" file="simulation1\AID05121.xml" />
    <inductionLoop id="AID05121_2" lane="492671784#0_1" pos="57.00" period="180.00" file="simulation1\AID05121.xml" />
    <inductionLoop id="AID05121_3" lane="492671784#0_0" pos="57.00" period="180.00" file="simulation1\AID05121.xml" />
    <inductionLoop id="AID05121_4" lane="151355639#0_0" pos="61.00" period="180.00" file="simulation1\AID05121.xml" />
    <inductionLoop id="AID05215_0" lane="1038154664_0" pos="25.00" period="180.00" file="simulation1\AID05215.xml" />
    <inductionLoop id="AID05215_1" lane="1038154664_1" pos="25.00" period="180.00" file="simulation1\AID05215.xml" />
    <inductionLoop id="AID05215_2" lane="1038154664_2" pos="25.00" period="180.00" file="simulation1\AID05215.xml" />
    <inductionLoop id="AID05215_3" lane="1038154664_3" pos="25.00" period="180.00" file="simulation1\AID05215.xml" />
    <inductionLoop id="AID05215_4" lane="1038154664_4" pos="25.00" period="180.00" file="simulation1\AID05215.xml" />
    <inductionLoop id="AID05216_0" lane="86113238_0" pos="13.00" period="180.00" file="simulation1\AID05216.xml" />
    <inductionLoop id="AID05216_1" lane="86113238_1" pos="13.00" period="180.00" file="simulation1\AID05216.xml" />
    <inductionLoop id="AID05216_2" lane="1087483652_0" pos="252.00" period="180.00" file="simulation1\AID05216.xml" />
    <inductionLoop id="AID05216_3" lane="1087483652_1" pos="252.00" period="180.00" file="simulation1\AID05216.xml" />
    <inductionLoop id="AID05217_0" lane="104292063#0_0" pos="160.00" period="180.00" file="simulation1\AID05217.xml" />
    <inductionLoop id="AID05217_1" lane="104292063#0_1" pos="160.00" period="180.00" file="simulation1\AID05217.xml" />
    <inductionLoop id="AID05217_2" lane="263843314_0" pos="435.00" period="180.00" file="simulation1\AID05217.xml" />
    <inductionLoop id="AID05217_3" lane="263843314_1" pos="436.00" period="180.00" file="simulation1\AID05217.xml" />
    <inductionLoop id="AID05218_0" lane="327096752#0_0" pos="110.00" period="180.00" file="simulation1\AID05218.xml" />
    <inductionLoop id="AID05218_1" lane="327096752#0_1" pos="110.00" period="180.00" file="simulation1\AID05218.xml" />
    <inductionLoop id="AID05218_2" lane="30151798_0" pos="22.00" period="180.00" file="simulation1\AID05218.xml" />
    <inductionLoop id="AID05218_3" lane="30151798_1" pos="22.00" period="180.00" file="simulation1\AID05218.xml" />
    <inductionLoop id="AID05218_4" lane="30151798_2" pos="22.00" period="180.00" file="simulation1\AID05218.xml" />
    <inductionLoop id="AID05219_0" lane="909700420_0" pos="75.00" period="180.00" file="simulation1\AID05219.xml" />
    <inductionLoop id="AID05219_1" lane="909700420_1" pos="75.00" period="180.00" file="simulation1\AID05219.xml" />
    <inductionLoop id="AID05219_2" lane="1133373517#1_0" pos="55.00" period="180.00" file="simulation1\AID05219.xml" />
    <inductionLoop id="AID05219_3" lane="1133373517#1_1" pos="55.00" period="180.00" file="simulation1\AID05219.xml" />
    <inductionLoop id="AID05220_0" lane="1133373516_0" pos="80.00" period="180.00" file="simulation1\AID05220.xml" />
    <inductionLoop id="AID05220_1" lane="1133373516_1" pos="79.00" period="180.00" file="simulation1\AID05220.xml" />
    <inductionLoop id="AID05221_0" lane="1133373519_0" pos="327.00" period="180.00" file="simulation1\AID05221.xml" />
    <inductionLoop id="AID05221_1" lane="1133373519_1" pos="327.00" period="180.00" file="simulation1\AID05221.xml" />
    <inductionLoop id="AID05222_0" lane="30150788_0" pos="92.00" period="180.00" file="simulation1\AID05222.xml" />
    <inductionLoop id="AID05222_1" lane="30150788_1" pos="92.00" period="180.00" file="simulation1\AID05222.xml" />
    <inductionLoop id="AID05223_0" lane="704283239_0" pos="38.86" period="180.00" file="simulation1\AID05223.xml" />
    <inductionLoop id="AID05224_0" lane="825369105_0" pos="388.00" period="180.00" file="simulation1\AID05224.xml" />
    <inductionLoop id="AID05225_0" lane="53470400_0" pos="10.00" period="180.00" file="simulation1\AID05225.xml" />
    <inductionLoop id="AID05225_1" lane="53470400_1" pos="10.00" period="180.00" file="simulation1\AID05225.xml" />
    <inductionLoop id="AID05226_0" lane="103020666#0_0" pos="58.00" period="180.00" file="simulation1\AID05226.xml" />
    <inductionLoop id="AID05226_1" lane="103020666#0_1" pos="58.00" period="180.00" file="simulation1\AID05226.xml" />
    <inductionLoop id="AID05227_0" lane="723795990_0" pos="27.00" period="180.00" file="simulation1\AID05227.xml" />
    <inductionLoop id="AID05227_1" lane="723795990_1" pos="27.00" period="180.00" file="simulation1\AID05227.xml" />
    <inductionLoop id="AID05227_2" lane="723795990_2" pos="27.00" period="180.00" file="simulation1\AID05227.xml" />
    <inductionLoop id="AID05227_3" lane="723795990_3" pos="27.00" period="180.00" file="simulation1\AID05227.xml" />
    <inductionLoop id="AID07117_0" lane="1133381874_0" pos="32.00" period="180.00" file="simulation1\AID07117.xml" />
    <inductionLoop id="AID07117_1" lane="1133381874_1" pos="32.00" period="180.00" file="simulation1\AID07117.xml" />
    <inductionLoop id="AID07117_2" lane="1133381874_2" pos="32.00" period="180.00" file="simulation1\AID07117.xml" />
    <inductionLoop id="AID07118_0" lane="1133392515_0" pos="97.00" period="180.00" file="simulation1\AID07118.xml" />
    <inductionLoop id="AID07118_1" lane="1133392515_1" pos="97.00" period="180.00" file="simulation1\AID07118.xml" />
    <inductionLoop id="AID07118_2" lane="1133392515_2" pos="97.00" period="180.00" file="simulation1\AID07118.xml" />
    <inductionLoop id="AID07119_0" lane="891027087_0" pos="73.00" period="180.00" file="simulation1\AID07119.xml" />
    <inductionLoop id="AID07119_1" lane="891027087_1" pos="73.00" period="180.00" file="simulation1\AID07119.xml" />
    <inductionLoop id="AID07119_2" lane="891027087_2" pos="73.00" period="180.00" file="simulation1\AID07119.xml" />
    <inductionLoop id="AID07120_0" lane="1258553162_0" pos="31.00" period="180.00" file="simulation1\AID07120.xml" />
    <inductionLoop id="AID07120_1" lane="1258553162_1" pos="31.00" period="180.00" file="simulation1\AID07120.xml" />
    <inductionLoop id="AID07120_2" lane="1258553162_2" pos="31.00" period="180.00" file="simulation1\AID07120.xml" />
    <inductionLoop id="AID07121_0" lane="891027089_0" pos="8.00" period="180.00" file="simulation1\AID07121.xml" />
    <inductionLoop id="AID07121_1" lane="891027089_1" pos="8.00" period="180.00" file="simulation1\AID07121.xml" />
    <inductionLoop id="AID07121_2" lane="891027089_2" pos="8.00" period="180.00" file="simulation1\AID07121.xml" />
    <inductionLoop id="AID07122_0" lane="1177235870_0" pos="16.00" period="180.00" file="simulation1\AID07122.xml" />
    <inductionLoop id="AID07122_1" lane="1177235870_1" pos="16.00" period="180.00" file="simulation1\AID07122.xml" />
    <inductionLoop id="AID07122_2" lane="1177235870_2" pos="16.00" period="180.00" file="simulation1\AID07122.xml" />
    <inductionLoop id="AID07122_3" lane="1177235870_3" pos="16.00" period="180.00" file="simulation1\AID07122.xml" />
    <inductionLoop id="AID07123_0" lane="1177235873_0" pos="395.00" period="180.00" file="simulation1\AID07123.xml" />